Version 4
SHEET 1 2360 680
WIRE -256 0 -496 0
WIRE -256 16 -256 0
WIRE 864 16 624 16
WIRE 864 32 864 16
WIRE -256 112 -256 96
WIRE -96 112 -256 112
WIRE 16 112 -96 112
WIRE 96 112 16 112
WIRE -496 128 -496 0
WIRE -256 128 -256 112
WIRE -96 128 -96 112
WIRE 16 128 16 112
WIRE 96 128 96 112
WIRE 864 128 864 112
WIRE 1024 128 864 128
WIRE 1136 128 1024 128
WIRE 1216 128 1136 128
WIRE 624 144 624 16
WIRE 864 144 864 128
WIRE 1024 144 1024 128
WIRE 1136 144 1136 128
WIRE 1216 144 1216 128
WIRE -256 224 -256 208
WIRE -96 224 -96 192
WIRE -96 224 -256 224
WIRE 16 224 16 192
WIRE 16 224 -96 224
WIRE 96 224 96 208
WIRE 96 224 16 224
WIRE -256 240 -256 224
WIRE 864 240 864 224
WIRE 1024 240 1024 208
WIRE 1024 240 864 240
WIRE 1136 240 1136 208
WIRE 1136 240 1024 240
WIRE 1216 240 1216 224
WIRE 1216 240 1136 240
WIRE 864 256 864 240
WIRE -496 336 -496 208
WIRE -256 336 -256 320
WIRE -256 336 -496 336
WIRE 624 352 624 224
WIRE 864 352 864 336
WIRE 864 352 624 352
WIRE -496 384 -496 336
WIRE 624 400 624 352
FLAG 624 400 0
FLAG -496 384 0
SYMBOL voltage 624 128 R0
WINDOW 123 24 124 Left 2
WINDOW 39 0 0 Left 0
WINDOW 3 24 44 Left 2
SYMATTR Value2 AC 325
SYMATTR InstName V1
SYMATTR Value SINE(0 325 50)
SYMBOL res 848 16 R0
SYMATTR InstName R5
SYMATTR Value 400k
SYMBOL res 848 128 R0
SYMATTR InstName R6
SYMATTR Value 6.2k
SYMBOL res 848 240 R0
SYMATTR InstName R7
SYMATTR Value 400k
SYMBOL cap 1008 144 R0
SYMATTR InstName C2
SYMATTR Value 3.3n
SYMBOL cap 1120 144 R0
SYMATTR InstName C3
SYMATTR Value 6p
SYMBOL res 1200 128 R0
SYMATTR InstName R8
SYMATTR Value 10Meg
SYMBOL voltage -496 112 R0
WINDOW 123 24 124 Left 2
WINDOW 39 0 0 Left 0
WINDOW 3 24 44 Left 2
SYMATTR Value2 AC 325
SYMATTR InstName V2
SYMATTR Value SINE(0 325 50)
SYMBOL res -272 0 R0
SYMATTR InstName R1
SYMATTR Value 400k
SYMBOL res -272 112 R0
SYMATTR InstName R2
SYMATTR Value 6.2k
SYMBOL res -272 224 R0
SYMATTR InstName R3
SYMATTR Value 400k
SYMBOL cap -112 128 R0
SYMATTR InstName C1
SYMATTR Value 2.2n
SYMBOL cap 0 128 R0
SYMATTR InstName C4
SYMATTR Value 6p
SYMBOL res 80 112 R0
SYMATTR InstName R4
SYMATTR Value 10Meg
TEXT 752 -352 Left 2 ;Battery Vdc measurement\nV3: 2x220k THT + 2x180k SMD\nC=3.3nF\n3,3V×((2×400+6.2)÷6.2) = 429.1V\n-> fg=7.8kHz\n-> Groupdelay@100Hz = 20.3us
TEXT 1120 80 Left 2 ;STM32 Input\ninternal sample and hold capacitor has 4pF
TEXT -8 544 Left 2 ;possible problem: GND/PE coupling\n-> use Philipp Swoboda single ended to differential conversion with high impedance input. \nThis also uses full 2x3.3V differential range of STM32 ADC
TEXT 88 -576 Left 2 ;Human Body Model max 3mA\nVbat and Vdc measurement voltage divider max 1.5mA each.\nmax Voltage = 96*4.25V = 408V\nmin. R = 408V/1.5mA = 272kOhm
TEXT -296 432 Left 2 !.ac dec 2000 50 200k
TEXT -368 -368 Left 2 ;GaN FB Cell Vdc measurement\nV1:\nC=2.2nF\n3,3V×((2×470+7,5)÷7,5) = 416.9V\n-> fg=9.7kHz\n-> Groupdelay@100Hz = 16.4us\n \nV2: 2x220k THT + 2x180k SMD\nC=2.2nF\n3,3V×((2×400+6.2)÷6.2) = 429.1V\n-> fg=11.7kHz\n-> Groupdelay@100Hz = 13.6us
TEXT 0 64 Left 2 ;STM32 Input\ninternal sample and hold capacitor has 4pF
